<?xml version="1.0" encoding="UTF-8"?>

<!-- generated on 2025-12-15T11:43:57.293080+09:00 by Eclipse SUMO netconvert 1.25.0
<netconvertConfiguration xmlns:xsi="http://www.w3.org/2001/XMLSchema-instance" xsi:noNamespaceSchemaLocation="http://sumo.dlr.de/xsd/netconvertConfiguration.xsd">

    <input>
        <node-files value="network.nod.xml"/>
        <edge-files value="network.edg.xml"/>
    </input>

    <output>
        <output-file value="network.net.xml"/>
    </output>

</netconvertConfiguration>
-->

<net version="1.20" junctionCornerDetail="5" limitTurnSpeed="5.50" xmlns:xsi="http://www.w3.org/2001/XMLSchema-instance" xsi:noNamespaceSchemaLocation="http://sumo.dlr.de/xsd/net_file.xsd">

    <location netOffset="0.00,0.00" convBoundary="0.00,0.00,800.00,400.00" origBoundary="0.00,0.00,800.00,400.00" projParameter="!"/>

    <edge id=":J1_0" function="internal">
        <lane id=":J1_0_0" index="0" speed="6.51" length="9.03" shape="201.60,192.80 201.95,195.25 203.00,197.00 204.75,198.05 207.20,198.40"/>
    </edge>
    <edge id=":J1_1" function="internal">
        <lane id=":J1_1_0" index="0" speed="13.89" length="11.20" shape="196.00,198.40 207.20,198.40"/>
    </edge>
    <edge id=":J2_0" function="internal">
        <lane id=":J2_0_0" index="0" speed="6.51" length="9.03" shape="401.60,192.80 401.95,195.25 403.00,197.00 404.75,198.05 407.20,198.40"/>
    </edge>
    <edge id=":J2_1" function="internal">
        <lane id=":J2_1_0" index="0" speed="13.89" length="11.20" shape="401.60,192.80 401.60,204.00"/>
    </edge>
    <edge id=":J2_2" function="internal">
        <lane id=":J2_2_0" index="0" speed="13.89" length="11.20" shape="396.00,198.40 407.20,198.40"/>
    </edge>
    <edge id=":J2_3" function="internal">
        <lane id=":J2_3_0" index="0" speed="6.51" length="4.11" shape="396.00,198.40 398.45,198.75 399.85,199.59"/>
    </edge>
    <edge id=":J2_4" function="internal">
        <lane id=":J2_4_0" index="0" speed="6.51" length="4.93" shape="399.85,199.59 400.20,199.80 401.25,201.55 401.60,204.00"/>
    </edge>
    <edge id=":J3_0" function="internal">
        <lane id=":J3_0_0" index="0" speed="6.51" length="9.03" shape="601.60,192.80 601.95,195.25 603.00,197.00 604.75,198.05 607.20,198.40"/>
    </edge>
    <edge id=":J3_1" function="internal">
        <lane id=":J3_1_0" index="0" speed="13.89" length="11.20" shape="601.60,192.80 601.60,204.00"/>
    </edge>
    <edge id=":J3_2" function="internal">
        <lane id=":J3_2_0" index="0" speed="13.89" length="11.20" shape="596.00,198.40 607.20,198.40"/>
    </edge>
    <edge id=":J3_3" function="internal">
        <lane id=":J3_3_0" index="0" speed="6.51" length="4.11" shape="596.00,198.40 598.45,198.75 599.85,199.59"/>
    </edge>
    <edge id=":J3_4" function="internal">
        <lane id=":J3_4_0" index="0" speed="6.51" length="4.93" shape="599.85,199.59 600.20,199.80 601.25,201.55 601.60,204.00"/>
    </edge>

    <edge id="J1_J2" from="J1" to="J2" priority="-1">
        <lane id="J1_J2_0" index="0" speed="13.89" length="188.80" shape="207.20,198.40 396.00,198.40"/>
    </edge>
    <edge id="J2_J3" from="J2" to="J3" priority="-1">
        <lane id="J2_J3_0" index="0" speed="13.89" length="188.80" shape="407.20,198.40 596.00,198.40"/>
    </edge>
    <edge id="J2_N2" from="J2" to="N2" priority="-1">
        <lane id="J2_N2_0" index="0" speed="13.89" length="196.00" shape="401.60,204.00 401.60,400.00"/>
    </edge>
    <edge id="J3_E" from="J3" to="E" priority="-1">
        <lane id="J3_E_0" index="0" speed="13.89" length="192.80" shape="607.20,198.40 800.00,198.40"/>
    </edge>
    <edge id="J3_N3" from="J3" to="N3" priority="-1">
        <lane id="J3_N3_0" index="0" speed="13.89" length="196.00" shape="601.60,204.00 601.60,400.00"/>
    </edge>
    <edge id="S1_J1" from="S1" to="J1" priority="-1">
        <lane id="S1_J1_0" index="0" speed="13.89" length="192.80" shape="201.60,0.00 201.60,192.80"/>
    </edge>
    <edge id="S2_J2" from="S2" to="J2" priority="-1">
        <lane id="S2_J2_0" index="0" speed="13.89" length="192.80" shape="401.60,0.00 401.60,192.80"/>
    </edge>
    <edge id="S3_J3" from="S3" to="J3" priority="-1">
        <lane id="S3_J3_0" index="0" speed="13.89" length="192.80" shape="601.60,0.00 601.60,192.80"/>
    </edge>
    <edge id="W_J1" from="W" to="J1" priority="-1">
        <lane id="W_J1_0" index="0" speed="13.89" length="196.00" shape="0.00,198.40 196.00,198.40"/>
    </edge>

    <junction id="E" type="dead_end" x="800.00" y="200.00" incLanes="J3_E_0" intLanes="" shape="800.00,196.80 800.00,200.00"/>
    <junction id="J1" type="priority" x="200.00" y="200.00" incLanes="S1_J1_0 W_J1_0" intLanes=":J1_0_0 :J1_1_0" shape="207.20,200.00 207.20,196.80 204.98,196.36 204.20,195.80 203.64,195.02 203.31,194.02 203.20,192.80 200.00,192.80 199.56,195.02 199.00,195.80 198.22,196.36 197.22,196.69 196.00,196.80 196.00,200.00">
        <request index="0" response="00" foes="10" cont="0"/>
        <request index="1" response="01" foes="01" cont="0"/>
    </junction>
    <junction id="J2" type="priority" x="400.00" y="200.00" incLanes="S2_J2_0 J1_J2_0" intLanes=":J2_0_0 :J2_1_0 :J2_2_0 :J2_4_0" shape="400.00,204.00 403.20,204.00 403.64,201.78 404.20,201.00 404.98,200.44 405.98,200.11 407.20,200.00 407.20,196.80 404.98,196.36 404.20,195.80 403.64,195.02 403.31,194.02 403.20,192.80 400.00,192.80 399.56,195.02 399.00,195.80 398.22,196.36 397.22,196.69 396.00,196.80 396.00,200.00 398.22,200.44 399.00,201.00 399.56,201.78 399.89,202.78">
        <request index="0" response="0000" foes="0100" cont="0"/>
        <request index="1" response="0000" foes="1100" cont="0"/>
        <request index="2" response="0011" foes="0011" cont="0"/>
        <request index="3" response="0010" foes="0010" cont="1"/>
    </junction>
    <junction id="J3" type="priority" x="600.00" y="200.00" incLanes="S3_J3_0 J2_J3_0" intLanes=":J3_0_0 :J3_1_0 :J3_2_0 :J3_4_0" shape="600.00,204.00 603.20,204.00 603.64,201.78 604.20,201.00 604.98,200.44 605.98,200.11 607.20,200.00 607.20,196.80 604.98,196.36 604.20,195.80 603.64,195.02 603.31,194.02 603.20,192.80 600.00,192.80 599.56,195.02 599.00,195.80 598.22,196.36 597.22,196.69 596.00,196.80 596.00,200.00 598.22,200.44 599.00,201.00 599.56,201.78 599.89,202.78">
        <request index="0" response="0000" foes="0100" cont="0"/>
        <request index="1" response="0000" foes="1100" cont="0"/>
        <request index="2" response="0011" foes="0011" cont="0"/>
        <request index="3" response="0010" foes="0010" cont="1"/>
    </junction>
    <junction id="N2" type="dead_end" x="400.00" y="400.00" incLanes="J2_N2_0" intLanes="" shape="403.20,400.00 400.00,400.00"/>
    <junction id="N3" type="dead_end" x="600.00" y="400.00" incLanes="J3_N3_0" intLanes="" shape="603.20,400.00 600.00,400.00"/>
    <junction id="S1" type="dead_end" x="200.00" y="0.00" incLanes="" intLanes="" shape="200.00,0.00 203.20,0.00"/>
    <junction id="S2" type="dead_end" x="400.00" y="0.00" incLanes="" intLanes="" shape="400.00,0.00 403.20,0.00"/>
    <junction id="S3" type="dead_end" x="600.00" y="0.00" incLanes="" intLanes="" shape="600.00,0.00 603.20,0.00"/>
    <junction id="W" type="dead_end" x="0.00" y="200.00" incLanes="" intLanes="" shape="0.00,200.00 0.00,196.80"/>

    <junction id=":J2_4_0" type="internal" x="399.85" y="199.59" incLanes=":J2_3_0 S2_J2_0" intLanes=":J2_1_0"/>
    <junction id=":J3_4_0" type="internal" x="599.85" y="199.59" incLanes=":J3_3_0 S3_J3_0" intLanes=":J3_1_0"/>

    <connection from="J1_J2" to="J2_J3" fromLane="0" toLane="0" via=":J2_2_0" dir="s" state="m"/>
    <connection from="J1_J2" to="J2_N2" fromLane="0" toLane="0" via=":J2_3_0" dir="l" state="m"/>
    <connection from="J2_J3" to="J3_E" fromLane="0" toLane="0" via=":J3_2_0" dir="s" state="m"/>
    <connection from="J2_J3" to="J3_N3" fromLane="0" toLane="0" via=":J3_3_0" dir="l" state="m"/>
    <connection from="S1_J1" to="J1_J2" fromLane="0" toLane="0" via=":J1_0_0" dir="r" state="M"/>
    <connection from="S2_J2" to="J2_J3" fromLane="0" toLane="0" via=":J2_0_0" dir="r" state="M"/>
    <connection from="S2_J2" to="J2_N2" fromLane="0" toLane="0" via=":J2_1_0" dir="s" state="M"/>
    <connection from="S3_J3" to="J3_E" fromLane="0" toLane="0" via=":J3_0_0" dir="r" state="M"/>
    <connection from="S3_J3" to="J3_N3" fromLane="0" toLane="0" via=":J3_1_0" dir="s" state="M"/>
    <connection from="W_J1" to="J1_J2" fromLane="0" toLane="0" via=":J1_1_0" dir="s" state="m"/>

    <connection from=":J1_0" to="J1_J2" fromLane="0" toLane="0" dir="r" state="M"/>
    <connection from=":J1_1" to="J1_J2" fromLane="0" toLane="0" dir="s" state="M"/>
    <connection from=":J2_0" to="J2_J3" fromLane="0" toLane="0" dir="r" state="M"/>
    <connection from=":J2_1" to="J2_N2" fromLane="0" toLane="0" dir="s" state="M"/>
    <connection from=":J2_2" to="J2_J3" fromLane="0" toLane="0" dir="s" state="M"/>
    <connection from=":J2_3" to="J2_N2" fromLane="0" toLane="0" via=":J2_4_0" dir="l" state="m"/>
    <connection from=":J2_4" to="J2_N2" fromLane="0" toLane="0" dir="l" state="M"/>
    <connection from=":J3_0" to="J3_E" fromLane="0" toLane="0" dir="r" state="M"/>
    <connection from=":J3_1" to="J3_N3" fromLane="0" toLane="0" dir="s" state="M"/>
    <connection from=":J3_2" to="J3_E" fromLane="0" toLane="0" dir="s" state="M"/>
    <connection from=":J3_3" to="J3_N3" fromLane="0" toLane="0" via=":J3_4_0" dir="l" state="m"/>
    <connection from=":J3_4" to="J3_N3" fromLane="0" toLane="0" dir="l" state="M"/>

</net>
