<?xml version="1.0" encoding="UTF-8"?>
<routes>
    <!-- Vehicle types -->
    <vType id="malfunction" accel="2.6" decel="4.5" sigma="0.0" length="5" maxSpeed="8" color="255,0,0"/>
    <vType id="helper" accel="2.6" decel="4.5" sigma="0.5" length="5" maxSpeed="15" color="100,200,100"/>

    <!-- Routes -->
    <route id="route_malfunction" edges="W_J1 J1_J2 J2_J3 J3_E"/>
    <route id="route_helper_A" edges="S1_J1 J1_J2 J2_N2"/>
    <route id="route_helper_B" edges="S2_J2 J2_J3 J3_N3"/>
    <route id="route_helper_C" edges="S3_J3 J3_E"/>
</routes>
